@<TRIPOS>MOLECULE
5202
 25 26 0 0 0
SMALL
GASTEIGER
****

@<TRIPOS>ATOM
      1 O          21.9756   -8.6987    0.0066 O.3     1  UNL1       -0.5067
      2 N          18.5877  -14.9109   -0.0076 N.ar    1  UNL1       -0.3604
      3 N          12.9664   -9.8536   -0.0194 N.3     1  UNL1       -0.3297
      4 C          16.9115  -12.6586    0.0227 C.ar    1  UNL1       -0.0211
      5 C          18.6350  -12.0543    0.0120 C.ar    1  UNL1        0.0063
      6 C          15.3762  -11.5986    0.0434 C.3     1  UNL1       -0.0133
      7 C          19.6606  -13.4928   -0.0069 C.ar    1  UNL1        0.0470
      8 C          16.9239  -14.4194    0.0103 C.ar    1  UNL1        0.0059
      9 C          14.4555  -10.9268   -0.0416 C.3     1  UNL1       -0.0029
     10 C          19.4233  -10.4165    0.0166 C.ar    1  UNL1       -0.0108
     11 C          21.4423  -13.3749   -0.0215 C.ar    1  UNL1       -0.0343
     12 C          21.2042  -10.2788    0.0022 C.ar    1  UNL1        0.1176
     13 C          22.1958  -11.7370   -0.0166 C.ar    1  UNL1       -0.0182
     14 H          14.4613  -12.3610    0.0835 H       1  UNL1        0.0326
     15 H          15.7510  -10.5025    0.0860 H       1  UNL1        0.0326
     16 H          15.9001  -15.3681    0.0124 H       1  UNL1        0.0810
     17 H          18.9736  -16.1366   -0.0195 H       1  UNL1        0.1653
     18 H          14.0225  -12.0172   -0.0829 H       1  UNL1        0.0425
     19 H          15.3576  -10.1721   -0.0827 H       1  UNL1        0.0425
     20 H          18.6541   -9.2761    0.0311 H       1  UNL1        0.0661
     21 H          22.2152  -14.5096   -0.0361 H       1  UNL1        0.0639
     22 H          23.5784  -11.6091   -0.0277 H       1  UNL1        0.0655
     23 H          12.4429   -9.3735   -0.0772 H       1  UNL1        0.1182
     24 H          13.3589   -8.8131    0.0173 H       1  UNL1        0.1182
     25 H          21.1037   -7.8328    0.0202 H       1  UNL1        0.2921
@<TRIPOS>BOND
     1     1    12    1
     2    12    13   ar
     3     2     7   ar
     4     2     8   ar
     5    11    13   ar
     6     3     9    1
     7    10    12   ar
     8     7    11   ar
     9     4     5   ar
    10     4     6    1
    11     4     8   ar
    12     5     7   ar
    13     5    10   ar
    14     6     9    1
    15     6    14    1
    16     6    15    1
    17     3    24    1
    18     8    16    1
    19     9    18    1
    20     9    19    1
    21     3    23    1
    22    10    20    1
    23     2    17    1
    24    11    21    1
    25     1    25    1
    26    13    22    1
