# Name: ZMA
# Created by ModelServer 0.9.12

# model_server_result.job_id: lRILl43ywqHbBPB1HjruYw
# model_server_result.datetime_utc: 2025-11-20 20:16:54
# model_server_result.server_version: 0.9.12
# model_server_result.query_name: ligand
# model_server_result.source_id: pdb-bcif
# model_server_result.entry_id: 4eiy

# model_server_params.name: atom_site
# model_server_params.value: {"label_asym_id":"B","auth_seq_id":2401}

# model_server_stats.io_time_ms: 34
# model_server_stats.parse_time_ms: 10
# model_server_stats.create_model_time_ms: 5
# model_server_stats.query_time_ms: 220
# model_server_stats.encode_time_ms: 0
# model_server_stats.element_count: 25

@<TRIPOS>MOLECULE
ZMA
25 28 1
****
****

@<TRIPOS>ATOM
1 C1 -1.739 13.399 14.541 C.ar 1 ZMA 0.000
2 C2 -1.482 14.754 14.743 C.ar 1 ZMA 0.000
3 C3 -0.286 15.127 15.365 C.ar 1 ZMA 0.000
4 O4 -0.030 16.456 15.561 O.3 1 ZMA 0.000
5 C5 0.644 14.151 15.780 C.ar 1 ZMA 0.000
6 C6 0.359 12.807 15.601 C.ar 1 ZMA 0.000
7 C7 -0.792 12.431 14.927 C.ar 1 ZMA 0.000
8 C8 -1.167 10.968 14.758 C.3 1 ZMA 0.000
9 C9 -2.158 10.770 15.915 C.3 1 ZMA 0.000
10 N10 -2.509 9.378 16.159 N.pl3 1 ZMA 0.000
11 C11 -1.671 8.528 16.788 C.cat 1 ZMA 0.000
12 N12 -2.056 7.231 16.973 N.ar 1 ZMA 0.000
13 N13 -0.465 8.972 17.233 N.ar 1 ZMA 0.000
14 C14 0.393 8.113 17.842 C.cat 1 ZMA 0.000
15 N15 1.566 8.595 18.269 N.pl3 1 ZMA 0.000
16 N16 0.002 6.844 18.036 N.ar 1 ZMA 0.000
17 N17 0.723 5.853 18.662 N.ar 1 ZMA 0.000
18 C18 -1.191 6.416 17.630 C.cat 1 ZMA 0.000
19 N19 -1.312 5.087 17.902 N.ar 1 ZMA 0.000
20 C20 -0.143 4.825 18.530 C.ar 1 ZMA 0.000
21 C21 0.215 3.484 19.041 C.ar 1 ZMA 0.000
22 C22 -0.643 2.413 19.123 C.ar 1 ZMA 0.000
23 C23 0.178 1.414 19.638 C.ar 1 ZMA 0.000
24 C24 1.459 1.920 19.777 C.ar 1 ZMA 0.000
25 O25 1.508 3.246 19.385 O.3 1 ZMA 0.000
@<TRIPOS>BOND
1 1 7 ar
2 1 2 ar
3 2 3 ar
4 3 5 ar
5 3 4 1
6 5 6 ar
7 6 7 ar
8 7 8 1
9 8 9 1
10 9 10 1
11 10 11 1
12 11 12 ar
13 11 13 ar
14 12 18 ar
15 13 14 ar
16 14 16 ar
17 14 15 1
18 16 17 ar
19 16 18 ar
20 17 20 ar
21 18 19 ar
22 19 20 ar
23 20 21 ar
24 21 22 ar
25 21 25 ar
26 22 23 ar
27 23 24 ar
28 24 25 ar
@<TRIPOS>SUBSTRUCTURE
1 ZMA 1
