@<TRIPOS>MOLECULE
SRO
 25 26 0 0 0
SMALL
GASTEIGER
****

@<TRIPOS>ATOM
      1 O          14.3836   -8.5849   -0.0047 O.3     1  UNL1       -0.5067
      2 C          15.1567  -10.2091   -0.0010 C.ar    1  UNL1        0.1176
      3 C          14.1335  -11.6969    0.0185 C.ar    1  UNL1       -0.0182
      4 C          14.8946  -13.3502    0.0226 C.ar    1  UNL1       -0.0343
      5 C          16.7015  -13.5475    0.0071 C.ar    1  UNL1        0.0470
      6 N          17.8187  -14.9903    0.0065 N.ar    1  UNL1       -0.3604
      7 C          19.5090  -14.4555   -0.0128 C.ar    1  UNL1        0.0059
      8 C          19.5501  -12.6950   -0.0250 C.ar    1  UNL1       -0.0211
      9 C          17.7379  -12.0477   -0.0125 C.ar    1  UNL1        0.0063
     10 C          16.9503  -10.3772   -0.0168 C.ar    1  UNL1       -0.0108
     11 C          21.1557  -11.5923   -0.0472 C.3     1  UNL1       -0.0133
     12 C          21.9354  -10.8418    0.0417 C.3     1  UNL1       -0.0029
     13 N          23.5014   -9.7670    0.0199 N.3     1  UNL1       -0.3297
     14 H          13.9508   -8.2659   -0.0651 H       1  UNL1        0.2921
     15 H          12.7303  -11.5513    0.0306 H       1  UNL1        0.0655
     16 H          14.0898  -14.4952    0.0378 H       1  UNL1        0.0639
     17 H          17.4613  -16.2028    0.0180 H       1  UNL1        0.1653
     18 H          20.6435  -15.3226   -0.0175 H       1  UNL1        0.0810
     19 H          17.7406   -9.2242   -0.0322 H       1  UNL1        0.0661
     20 H          22.1419  -12.4144   -0.0814 H       1  UNL1        0.0326
     21 H          20.7758  -10.5069   -0.0925 H       1  UNL1        0.0326
     22 H          20.9492  -10.0198    0.0758 H       1  UNL1        0.0425
     23 H          22.3166  -11.9272    0.0869 H       1  UNL1        0.0425
     24 H          23.2009   -8.8020   -0.0254 H       1  UNL1        0.1182
     25 H          24.0414   -9.2560    0.0775 H       1  UNL1        0.1182
@<TRIPOS>BOND
     1     1     2    1
     2    12    13    1
     3     2    10   ar
     4     2     3   ar
     5     3     4   ar
     6    11    12    1
     7     4     5   ar
     8     9    10   ar
     9     5     6   ar
    10     5     9   ar
    11     6     7   ar
    12     8     9   ar
    13     7     8   ar
    14     8    11    1
    15     7    18    1
    16     6    17    1
    17     4    16    1
    18    10    19    1
    19     3    15    1
    20    11    20    1
    21    11    21    1
    22     1    14    1
    23    12    22    1
    24    12    23    1
    25    13    24    1
    26    13    25    1
