@<TRIPOS>MOLECULE
ZMA
 40 43 0 0 0
SMALL
GASTEIGER
****

@<TRIPOS>ATOM
      1 C          11.9075  -11.4240    0.0854 C.ar    1  UNL1       -0.0551
      2 C          10.2938  -12.3654    0.0858 C.ar    1  UNL1       -0.0199
      3 C           9.4849  -12.8483    0.0001 C.ar    1  UNL1        0.1169
      4 O           7.8969  -13.7735    0.0002 O.3     1  UNL1       -0.5068
      5 C          10.2992  -12.3844   -0.0856 C.ar    1  UNL1       -0.0199
      6 C          11.9143  -11.4429   -0.0855 C.ar    1  UNL1       -0.0551
      7 C          12.7137  -10.9560   -0.0001 C.ar    1  UNL1       -0.0457
      8 C          14.4735   -9.9280   -0.0002 C.3     1  UNL1       -0.0120
      9 C          16.0534  -11.2657   -0.0001 C.3     1  UNL1        0.0158
     10 N          17.7645  -10.2675   -0.0003 N.pl3   1  UNL1       -0.3130
     11 C          19.3849  -11.1927   -0.0002 C.ar    1  UNL1        0.2213
     12 N          20.9202  -10.2742    0.0001 N.ar    1  UNL1       -0.1771
     13 N          19.3741  -12.9985   -0.0000 N.ar    1  UNL1       -0.1812
     14 C          20.9053  -13.9196    0.0001 C.ar    1  UNL1        0.2198
     15 N          20.8823  -15.7727    0.0002 N.pl3   1  UNL1       -0.3273
     16 N          22.5095  -13.0079   -0.0001 N.ar    1  UNL1       -0.1644
     17 N          24.3261  -13.5422    0.0000 N.ar    1  UNL1       -0.1375
     18 C          22.5068  -11.1535    0.0001 C.ar    1  UNL1        0.2593
     19 N          24.2112  -10.6111    0.0004 N.ar    1  UNL1       -0.1861
     20 C          25.3081  -12.0530   -0.0001 C.ar    1  UNL1        0.2189
     21 C          27.3060  -11.9853   -0.0001 C.ar    1  UNL1        0.1734
     22 C          28.3340  -10.4609   -0.0003 C.ar    1  UNL1       -0.0127
     23 C          30.1547  -11.0263   -0.0002 C.ar    1  UNL1       -0.0232
     24 C          30.1479  -12.8497   -0.0001 C.ar    1  UNL1        0.0927
     25 O          28.4246  -13.4232    0.0004 O.2     1  UNL1       -0.4597
     26 H          12.5365  -11.0466    0.1520 H       1  UNL1        0.0621
     27 H           9.6608  -12.7252    0.1525 H       1  UNL1        0.0654
     28 H           6.8351  -13.0093   -0.0001 H       1  UNL1        0.2921
     29 H           9.6729  -12.7591   -0.1523 H       1  UNL1        0.0654
     30 H          12.5487  -11.0818   -0.1522 H       1  UNL1        0.0621
     31 H          14.5465   -9.0826   -0.0639 H       1  UNL1        0.0328
     32 H          14.5479   -9.0785    0.0632 H       1  UNL1        0.0328
     33 H          15.9790  -12.1111    0.0634 H       1  UNL1        0.0465
     34 H          15.9790  -12.1152   -0.0636 H       1  UNL1        0.0465
     35 H          17.7577   -8.9554   -0.0004 H       1  UNL1        0.1489
     36 H          19.7380  -16.4152    0.0003 H       1  UNL1        0.1452
     37 H          22.0118  -16.4423    0.0003 H       1  UNL1        0.1452
     38 H          27.8498   -9.0826   -0.0004 H       1  UNL1        0.0656
     39 H          31.3328  -10.1620   -0.0003 H       1  UNL1        0.0649
     40 H          31.3315  -13.7059    0.0001 H       1  UNL1        0.1029
@<TRIPOS>BOND
     1     1     2   ar
     2    25    21   ar
     3     2     3   ar
     4    24    25   ar
     5     3     4    1
     6    23    24   ar
     7     5     3   ar
     8    23    22   ar
     9     6     5   ar
    10    22    21   ar
    11     7     1   ar
    12     7     6   ar
    13     8     7    1
    14    21    20    1
    15    20    19   ar
    16     9     8    1
    17    20    17   ar
    18    19    18   ar
    19    10     9    1
    20    18    16   ar
    21    11    10    1
    22    11    13   ar
    23    12    11   ar
    24    14    13   ar
    25    14    15    1
    26    18    12   ar
    27    17    16   ar
    28    16    14   ar
    29    15    37    1
    30    15    36    1
    31    10    35    1
    32     9    34    1
    33     9    33    1
    34     8    32    1
    35     8    31    1
    36     6    30    1
    37    22    38    1
    38     5    29    1
    39     4    28    1
    40    23    39    1
    41     2    27    1
    42    24    40    1
    43     1    26    1
