# Name: FK5
# Created by ModelServer 0.9.12

# model_server_result.job_id: 5whMz5OXOBIoGy1Y7glf4w
# model_server_result.datetime_utc: 2025-11-25 17:43:15
# model_server_result.server_version: 0.9.12
# model_server_result.query_name: ligand
# model_server_result.source_id: pdb-bcif
# model_server_result.entry_id: 1fkj

# model_server_params.name: atom_site
# model_server_params.value: {"label_asym_id":"B","auth_seq_id":108}

# model_server_stats.io_time_ms: 5
# model_server_stats.parse_time_ms: 52
# model_server_stats.create_model_time_ms: 2
# model_server_stats.query_time_ms: 282
# model_server_stats.encode_time_ms: 0
# model_server_stats.element_count: 57

@<TRIPOS>MOLECULE
FK5
57 60 1
****
****

@<TRIPOS>ATOM
1 C1 19.949 28.568 21.857 C.2 1 FK5 0.000
2 C2 18.568 29.218 21.970 C.3 1 FK5 0.000
3 C3 17.964 29.385 20.574 C.3 1 FK5 0.000
4 C4 18.601 30.521 19.741 C.3 1 FK5 0.000
5 C5 18.415 31.830 20.474 C.3 1 FK5 0.000
6 C6 19.035 31.693 21.862 C.3 1 FK5 0.000
7 C8 17.851 30.621 23.859 C.2 1 FK5 0.000
8 C9 17.676 31.834 24.546 C.2 1 FK5 0.000
9 C10 18.801 32.356 25.503 C.3 1 FK5 0.000
10 C11 19.456 31.256 26.382 C.3 1 FK5 0.000
11 C12 20.815 31.750 26.990 C.3 1 FK5 0.000
12 C13 21.717 32.449 25.922 C.3 1 FK5 0.000
13 C14 20.920 33.571 25.237 C.3 1 FK5 0.000
14 C15 21.593 34.502 24.165 C.3 1 FK5 0.000
15 C16 22.372 33.745 23.045 C.3 1 FK5 0.000
16 C17 22.953 34.547 21.834 C.3 1 FK5 0.000
17 C18 24.421 35.099 22.062 C.3 1 FK5 0.000
18 C19 25.460 33.954 21.902 C.2 1 FK5 0.000
19 C20 25.966 33.352 23.026 C.2 1 FK5 0.000
20 C21 27.014 32.209 23.143 C.3 1 FK5 0.000
21 C22 26.232 30.858 23.278 C.2 1 FK5 0.000
22 C23 26.069 30.036 21.976 C.3 1 FK5 0.000
23 C24 24.856 29.092 22.033 C.3 1 FK5 0.000
24 C25 23.440 29.778 22.123 C.3 1 FK5 0.000
25 C26 22.356 28.681 22.369 C.3 1 FK5 0.000
26 C27 22.556 27.857 23.672 C.2 1 FK5 0.000
27 C28 22.729 26.520 23.525 C.2 1 FK5 0.000
28 C29 23.355 25.568 24.559 C.3 1 FK5 0.000
29 C30 22.523 24.253 24.438 C.3 1 FK5 0.000
30 C31 23.130 23.136 25.286 C.3 1 FK5 0.000
31 C32 24.607 22.941 24.866 C.3 1 FK5 0.000
32 C33 25.466 24.221 25.017 C.3 1 FK5 0.000
33 C34 24.853 25.370 24.176 C.3 1 FK5 0.000
34 C35 18.475 30.707 27.445 C.3 1 FK5 0.000
35 C36 22.005 35.668 21.322 C.3 1 FK5 0.000
36 C37 25.928 33.684 20.437 C.3 1 FK5 0.000
37 C38 27.922 32.514 24.417 C.3 1 FK5 0.000
38 C39 28.894 31.377 24.743 C.2 1 FK5 0.000
39 C40 29.736 30.826 23.846 C.2 1 FK5 0.000
40 C41 23.047 30.603 20.842 C.3 1 FK5 0.000
41 C42 22.464 28.537 25.044 C.3 1 FK5 0.000
42 C43 24.070 32.136 26.629 C.3 1 FK5 0.000
43 C44 21.810 36.765 25.210 C.3 1 FK5 0.000
44 C45 21.434 21.447 25.907 C.3 1 FK5 0.000
45 N7 18.444 30.544 22.615 N.am 1 FK5 0.000
46 O1 21.027 29.295 22.381 O.3 1 FK5 0.000
47 O2 20.133 27.538 21.287 O.2 1 FK5 0.000
48 O3 17.438 29.618 24.457 O.2 1 FK5 0.000
49 O4 16.721 32.566 24.306 O.2 1 FK5 0.000
50 O5 19.784 32.946 24.608 O.3 1 FK5 0.000
51 O6 18.277 33.391 26.367 O.3 1 FK5 0.000
52 O7 22.924 33.019 26.551 O.3 1 FK5 0.000
53 O8 22.457 35.505 24.791 O.3 1 FK5 0.000
54 O9 25.973 30.364 24.376 O.2 1 FK5 0.000
55 O10 24.910 28.163 20.936 O.3 1 FK5 0.000
56 O11 22.382 21.937 24.951 O.3 1 FK5 0.000
57 O12 25.184 21.863 25.625 O.3 1 FK5 0.000
@<TRIPOS>BOND
1 1 2 1
2 1 46 1
3 1 47 2
4 2 3 1
5 2 45 1
6 3 4 1
7 4 5 1
8 5 6 1
9 6 45 1
10 7 8 1
11 7 45 1
12 7 48 2
13 8 9 1
14 8 49 2
15 9 10 1
16 9 50 1
17 9 51 1
18 10 11 1
19 10 34 1
20 11 12 1
21 12 13 1
22 12 52 1
23 13 14 1
24 13 50 1
25 14 15 1
26 14 53 1
27 15 16 1
28 16 17 1
29 16 35 1
30 17 18 1
31 18 19 2
32 18 36 1
33 19 20 1
34 20 21 1
35 20 37 1
36 21 22 1
37 21 54 2
38 22 23 1
39 23 24 1
40 23 55 1
41 24 25 1
42 24 40 1
43 25 26 1
44 25 46 1
45 26 27 2
46 26 41 1
47 27 28 1
48 28 29 1
49 28 33 1
50 29 30 1
51 30 31 1
52 30 56 1
53 31 32 1
54 31 57 1
55 32 33 1
56 37 38 1
57 38 39 2
58 42 52 1
59 43 53 1
60 44 56 1
@<TRIPOS>SUBSTRUCTURE
1 FK5 1
