# Name: HMG
# Created by ModelServer 0.9.12

# model_server_result.job_id: LsT6hmMABWYaDDnLCrqeEw
# model_server_result.datetime_utc: 2025-11-20 19:52:39
# model_server_result.server_version: 0.9.12
# model_server_result.query_name: ligand
# model_server_result.source_id: pdb-bcif
# model_server_result.entry_id: 1qax

# model_server_params.name: atom_site
# model_server_params.value: {"label_asym_id":"C","auth_seq_id":1002}

# model_server_stats.io_time_ms: 9
# model_server_stats.parse_time_ms: 5
# model_server_stats.create_model_time_ms: 4
# model_server_stats.query_time_ms: 201
# model_server_stats.encode_time_ms: 0
# model_server_stats.element_count: 58

@<TRIPOS>MOLECULE
HMG
58 60 1
****
****

@<TRIPOS>ATOM
1 P2A 71.289 122.690 104.229 P.3 1 HMG 0.000
2 O5A 70.915 123.760 103.265 O.co2 1 HMG 0.000
3 O4A 72.299 121.675 103.790 O.co2 1 HMG 0.000
4 O3A 69.957 121.896 104.729 O.3 1 HMG 0.000
5 O6A 71.812 123.397 105.593 O.3 1 HMG 0.000
6 P1A 68.505 122.220 105.384 P.3 1 HMG 0.000
7 O1A 67.463 121.706 104.450 O.co2 1 HMG 0.000
8 O2A 68.424 123.641 105.802 O.co2 1 HMG 0.000
9 O5B 68.495 121.290 106.716 O.3 1 HMG 0.000
10 C5B 67.378 121.296 107.640 C.3 1 HMG 0.000
11 C4B 67.883 120.945 109.036 C.3 1 HMG 0.000
12 O4B 69.209 121.508 109.195 O.3 1 HMG 0.000
13 C3B 66.981 121.549 110.116 C.3 1 HMG 0.000
14 O3B 66.211 120.536 110.787 O.3 1 HMG 0.000
15 C2B 67.908 122.209 111.095 C.3 1 HMG 0.000
16 O2B 68.127 121.377 112.248 O.3 1 HMG 0.000
17 C1B 69.208 122.411 110.335 C.3 1 HMG 0.000
18 P3B 64.615 120.547 110.667 P.3 1 HMG 0.000
19 O7A 64.246 121.902 110.160 O.co2 1 HMG 0.000
20 O8A 64.316 119.469 109.691 O.co2 1 HMG 0.000
21 O9A 64.090 120.258 112.001 O.co2 1 HMG 0.000
22 N9A 69.308 123.838 109.893 N.ar 1 HMG 0.000
23 C4A 69.005 124.875 110.716 C.ar 1 HMG 0.000
24 N3A 68.593 125.120 111.993 N.ar 1 HMG 0.000
25 C2A 68.404 126.377 112.422 C.ar 1 HMG 0.000
26 N1A 68.623 127.421 111.604 N.ar 1 HMG 0.000
27 C6A 69.032 127.230 110.323 C.ar 1 HMG 0.000
28 C5A 69.231 125.921 109.872 C.ar 1 HMG 0.000
29 N7A 69.622 125.623 108.660 N.ar 1 HMG 0.000
30 C8A 69.677 124.286 108.660 C.ar 1 HMG 0.000
31 N6A 69.228 128.279 109.501 N.pl3 1 HMG 0.000
32 CBP 73.964 124.240 106.665 C.3 1 HMG 0.000
33 CCP 72.912 124.317 105.574 C.3 1 HMG 0.000
34 CDP 74.052 125.574 107.434 C.3 1 HMG 0.000
35 CEP 73.579 123.191 107.728 C.3 1 HMG 0.000
36 CAP 75.290 123.862 105.978 C.3 1 HMG 0.000
37 OAP 75.547 124.430 104.685 O.3 1 HMG 0.000
38 C9P 76.608 123.453 106.643 C.2 1 HMG 0.000
39 O9P 76.862 122.263 106.882 O.2 1 HMG 0.000
40 N8P 77.455 124.450 106.896 N.am 1 HMG 0.000
41 C7P 78.762 124.284 107.528 C.3 1 HMG 0.000
42 C6P 79.391 125.616 107.929 C.3 1 HMG 0.000
43 C5P 80.111 125.562 109.277 C.2 1 HMG 0.000
44 O5P 80.467 124.489 109.785 O.2 1 HMG 0.000
45 N4P 80.337 126.739 109.848 N.am 1 HMG 0.000
46 C3P 81.004 126.911 111.133 C.3 1 HMG 0.000
47 C2P 82.332 127.628 111.000 C.3 1 HMG 0.000
48 S1P 83.482 126.745 109.921 S.3 1 HMG 0.000
49 C1 84.728 127.975 109.759 C.2 1 HMG 0.000
50 O2 84.667 129.096 110.310 O.2 1 HMG 0.000
51 C2 85.936 127.660 108.883 C.3 1 HMG 0.000
52 C3 86.119 126.199 108.457 C.3 1 HMG 0.000
53 O7 87.312 126.111 107.677 O.3 1 HMG 0.000
54 C4 86.257 125.334 109.721 C.3 1 HMG 0.000
55 C5 86.555 123.850 109.478 C.2 1 HMG 0.000
56 O3 86.362 123.028 110.407 O.co2 1 HMG 0.000
57 O4 86.984 123.502 108.368 O.co2 1 HMG 0.000
58 C6 84.930 125.747 107.582 C.3 1 HMG 0.000
@<TRIPOS>BOND
1 1 2 2
2 1 3 1
3 1 4 1
4 1 5 1
5 4 6 1
6 5 33 1
7 6 7 2
8 6 8 1
9 6 9 1
10 9 10 1
11 10 11 1
12 11 12 1
13 11 13 1
14 12 17 1
15 13 14 1
16 13 15 1
17 14 18 1
18 15 16 1
19 15 17 1
20 17 22 1
21 18 19 2
22 18 20 1
23 18 21 1
24 22 23 ar
25 22 30 ar
26 23 24 ar
27 23 28 ar
28 24 25 ar
29 25 26 ar
30 26 27 ar
31 27 28 ar
32 27 31 1
33 28 29 ar
34 29 30 ar
35 32 33 1
36 32 34 1
37 32 35 1
38 32 36 1
39 36 37 1
40 36 38 1
41 38 39 2
42 38 40 1
43 40 41 1
44 41 42 1
45 42 43 1
46 43 44 2
47 43 45 1
48 45 46 1
49 46 47 1
50 47 48 1
51 48 49 1
52 49 50 2
53 49 51 1
54 51 52 1
55 52 53 1
56 52 54 1
57 52 58 1
58 54 55 1
59 55 56 2
60 55 57 1
@<TRIPOS>SUBSTRUCTURE
1 HMG 1
